/*--------------------------------*- C++ -*----------------------------------*\
  =========                 |
  \\      /  F ield         | OpenFOAM: The Open Source CFD Toolbox
   \\    /   O peration     | Website:  https://openfoam.org
    \\  /    A nd           | Version:  7
     \\/     M anipulation  |
\*---------------------------------------------------------------------------*/
FoamFile
{
    version     2.0;
    format      ascii;
    class       polyBoundaryMesh;
    location    "0.0101/polyMesh";
    object      boundary;
}
// * * * * * * * * * * * * * * * * * * * * * * * * * * * * * * * * * * * * * //

8
(
    top
    {
        type            wall;
        inGroups        List<word> 1(wall);
        nFaces          798;
        startFace       34300;
    }
    left
    {
        type            wall;
        inGroups        List<word> 1(wall);
        nFaces          300;
        startFace       35098;
    }
    right
    {
        type            wall;
        inGroups        List<word> 1(wall);
        nFaces          300;
        startFace       35398;
    }
    bottom
    {
        type            wall;
        inGroups        List<word> 1(wall);
        nFaces          800;
        startFace       35698;
    }
    front
    {
        type            wall;
        inGroups        List<word> 1(wall);
        nFaces          600;
        startFace       36498;
    }
    back
    {
        type            wall;
        inGroups        List<word> 1(wall);
        nFaces          600;
        startFace       37098;
    }
    inlet
    {
        type            patch;
        nFaces          1;
        startFace       37698;
    }
    outlet
    {
        type            patch;
        nFaces          1;
        startFace       37699;
    }
)

// ************************************************************************* //
